# generated using pymatgen
data_Li2ZnCl4
_symmetry_space_group_name_H-M   Pnma
_cell_length_a   12.65210377
_cell_length_b   7.35840117
_cell_length_c   6.06333861
_cell_angle_alpha   90.00000000
_cell_angle_beta   90.00000000
_cell_angle_gamma   90.00000000
_symmetry_Int_Tables_number   62
_chemical_formula_structural   Li2ZnCl4
_chemical_formula_sum   'Li8 Zn4 Cl16'
_cell_volume   564.49230852
_cell_formula_units_Z   4
loop_
 _symmetry_equiv_pos_site_id
 _symmetry_equiv_pos_as_xyz
  1  'x, y, z'
  2  '-x, -y, -z'
  3  '-x+1/2, -y, z+1/2'
  4  'x+1/2, y, -z+1/2'
  5  'x+1/2, -y+1/2, -z+1/2'
  6  '-x+1/2, y+1/2, z+1/2'
  7  '-x, y+1/2, -z'
  8  'x, -y+1/2, z'
loop_
 _atom_type_symbol
 _atom_type_oxidation_number
  Li+  1.0
  Zn2+  2.0
  Cl-  -1.0
loop_
 _atom_site_type_symbol
 _atom_site_label
 _atom_site_symmetry_multiplicity
 _atom_site_fract_x
 _atom_site_fract_y
 _atom_site_fract_z
 _atom_site_occupancy
  Li+  Li0  4  0.00000000  0.00000000  0.00000000  1
  Li+  Li1  4  0.23130008  0.25000000  0.50375720  1
  Zn2+  Zn2  4  0.08909463  0.75000000  0.58268472  1
  Cl-  Cl3  8  0.16617579  0.50633756  0.74907080  1
  Cl-  Cl4  4  0.07426319  0.25000000  0.25308028  1
  Cl-  Cl5  4  0.08933461  0.75000000  0.21447974  1
