# CIF file generated from Rietveld refinement data
data_Li7Ge3PS12
_symmetry_space_group_name_H-M 'F-43m'
_symmetry_Int_Tables_number 216

_cell_length_a 9.80192
_cell_length_b 9.80192
_cell_length_c 9.80192
_cell_angle_alpha 90
_cell_angle_beta 90
_cell_angle_gamma 90

loop_
_atom_site_label
_atom_site_type_symbol
_atom_site_occupancy
_atom_site_fract_x
_atom_site_fract_y
_atom_site_fract_z
_atom_site_B_iso_or_equiv

Li1  Li  0.2884  0.81875  0.81875  0.0140  4.86
Ge1  Ge  0.0866  0.81875  0.81875  0.0140  4.86
P1   P   0.4995  0.5      0.5      0.5     1.95
Ge2  Ge  0.5005  0.5      0.5      0.5     1.95
S1   S   1.0000  0.62329  0.62329  0.62329 5.71
S2   S   1.0000  0.25     0.25     0.25    5.92
S3   S   1.0000  0.0      0.0      0.0     7.11
